# created with PyMOL 2.5.7
@<TRIPOS>MOLECULE
ps
18 18 1                 
SMALL
USER_CHARGES
@<TRIPOS>ATOM
1	  C1	0.183	-0.210	-0.479	C.3	1	noname1	0.000	
2	  C2	1.400	0.071	0.430	C.3	1	noname1	0.000	
3	  C3	1.980	1.409	0.135	C.2	1	noname1	0.000	
4	  C4	1.511	2.563	0.807	C.2	1	noname1	0.000	
5	  C5	2.034	3.835	0.500	C.2	1	noname1	0.000	
6	  C6	3.031	3.970	-0.482	C.2	1	noname1	0.000	
7	  C7	3.504	2.832	-1.158	C.2	1	noname1	0.000	
8	  C8	2.983	1.559	-0.853	C.2	1	noname1	0.000	
9	  H1	-0.692	-0.412	0.139	 H	1	noname1	0.000	
10	  H2	-0.009	0.659	-1.108	 H	1	noname1	0.000	
11	  H3	0.392	-1.075	-1.108	 H	1	noname1	0.000	
12	  H4	1.031	0.126	1.454	 H	1	noname1	0.000	
13	  H5	2.172	-0.652	0.167	 H	1	noname1	0.000	
14	  H6	0.739	2.471	1.571	 H	1	noname1	0.000	
15	  H7	1.666	4.717	1.024	 H	1	noname1	0.000	
16	  H8	3.436	4.954	-0.718	 H	1	noname1	0.000	
17	  H9	4.276	2.936	-1.921	 H	1	noname1	0.000	
18	 H10	3.357	0.685	-1.384	 H	1	noname1	0.000	
@<TRIPOS>BOND
1 1 2 1
2 1 9 1
3 1 10 1
4 1 11 1
5 2 3 1
6 2 12 1
7 2 13 1
8 3 4 ar
9 3 8 ar
10 4 5 ar
11 4 14 1
12 5 6 ar
13 5 15 1
14 6 7 ar
15 6 16 1
16 7 8 ar
17 7 17 1
18 8 18 1
@<TRIPOS>SUBSTRUCTURE
1	noname1	1	GROUP	1 ****	noname
