# created with PyMOL 2.5.7
@<TRIPOS>MOLECULE
ps_carb
20 20 1                 
SMALL
USER_CHARGES
@<TRIPOS>ATOM
1	  C1	4.845	-0.953	-0.302	C.3	1	noname1	0.000	
2	  O1	2.650	5.827	0.513	O.co2	1	noname1	0.000	
3	  C2	4.113	-0.224	-1.451	C.3	1	noname1	0.000	
4	  O2	4.597	6.254	-0.464	O.co2	1	noname1	-1.000	
5	  C3	3.970	1.220	-1.132	C.2	1	noname1	0.000	
6	  C4	4.978	2.139	-1.488	C.2	1	noname1	0.000	
7	  C5	4.863	3.499	-1.149	C.2	1	noname1	0.000	
8	  C6	3.738	3.986	-0.441	C.2	1	noname1	0.000	
9	  C7	3.633	5.366	-0.112	C.2	1	noname1	0.000	
10	  C8	2.735	3.055	-0.076	C.2	1	noname1	0.000	
11	  C9	2.850	1.694	-0.415	C.2	1	noname1	0.000	
12	  H1	4.757	-2.030	-0.440	 H	1	noname1	0.000	
13	  H2	5.898	-0.671	-0.305	 H	1	noname1	0.000	
14	  H3	4.396	-0.671	0.651	 H	1	noname1	0.000	
15	  H4	4.758	-0.274	-2.329	 H	1	noname1	0.000	
16	  H5	3.100	-0.623	-1.496	 H	1	noname1	0.000	
17	  H6	5.858	1.795	-2.033	 H	1	noname1	0.000	
18	  H7	5.657	4.187	-1.439	 H	1	noname1	0.000	
19	  H9	1.858	3.393	0.476	 H	1	noname1	0.000	
20	 H10	2.063	1.000	-0.120	 H	1	noname1	0.000	
@<TRIPOS>BOND
1 1 3 1
2 1 12 1
3 1 13 1
4 1 14 1
5 3 5 1
6 3 15 1
7 3 16 1
8 5 6 ar
9 5 11 ar
10 6 7 ar
11 6 17 1
12 7 8 ar
13 7 18 1
14 8 9 1
15 8 10 ar
16 2 9 2
17 4 9 1
18 10 11 ar
19 10 19 1
20 11 20 1
@<TRIPOS>SUBSTRUCTURE
1	noname1	1	GROUP	1 ****	noname
